@<TRIPOS>MOLECULE
2OP4021
 12 11 0 0 0
SMALL
USER_CHARGES

@<TRIPOS>ATOM
      1 CA         60.4620   35.0510   19.1790 C.3     1  2OP4021     0.1486
      2 C          60.6510   36.4260   18.5400 C.2     1  2OP4021     0.3333
      3 O          60.5680   36.5010   17.3090 O.2     1  2OP4021    -0.2481
      4 CB         59.2130   34.4210   18.6150 C.3     1  2OP4021    -0.0285
      5 OHN        60.3610   35.1440   20.5760 O.3     1  2OP4021    -0.3809
      6 OXT        60.8790   37.3610   19.2910 O.3     1  2OP4021    -0.4788
      7 H          61.3166   34.4472   18.9554 H       1  2OP4021     0.0707
      8 H          58.3680   35.0353   18.8463 H       1  2OP4021     0.0260
      9 H          59.0772   33.4509   19.0455 H       1  2OP4021     0.0260
     10 H          59.3078   34.3299   17.5531 H       1  2OP4021     0.0260
     11 H          59.5922   35.6876   20.8091 H       1  2OP4021     0.2105
     12 H          60.9258   37.2184   20.2159 H       1  2OP4021     0.2951
@<TRIPOS>BOND
     1     1     2    1
     2     1     4    1
     3     1     5    1
     4     2     3    2
     5     2     6    1
     6     1     7    1
     7     4     8    1
     8     4     9    1
     9     4    10    1
    10     5    11    1
    11     6    12    1
